/*---------------------------------------------------------------------------*\
| =========                 |                                                 |
| \\      /  F ield         | OpenFOAM: The Open Source CFD Toolbox           |
|  \\    /   O peration     | Version:  v1912                                 |
|   \\  /    A nd           | Website:  www.openfoam.com                      |
|    \\/     M anipulation  |                                                 |
\*---------------------------------------------------------------------------*/
Build  : _f3950763fe-20191219 OPENFOAM=1912
Arch   : "LSB;label=32;scalar=64"
Exec   : blockMesh
Date   : Oct 01 2020
Time   : 22:33:31
Host   : aleksandr-Aspire-V3-571G
PID    : 28303
I/O    : uncollated
Case   : /home/aleksandr/ISP/ICING/iceFoam/tutorials/TEST
nProcs : 1
trapFpe: Floating point exception trapping enabled (FOAM_SIGFPE).
fileModificationChecking : Monitoring run-time modified files using timeStampMaster (fileModificationSkew 10)
allowSystemOperations : Allowing user-supplied system call operations

// * * * * * * * * * * * * * * * * * * * * * * * * * * * * * * * * * * * * * //
Create time

Creating block mesh from "system/blockMeshDict"
Creating block edges
No non-planar block faces defined
Creating topology blocks
Creating topology patches

Creating block mesh topology

Check topology

	Basic statistics
		Number of internal faces : 0
		Number of boundary faces : 6
		Number of defined boundary faces : 6
		Number of undefined boundary faces : 0
	Checking patch -> block consistency

Creating block offsets
Creating merge list...

Creating polyMesh from blockMesh
Creating patches
Creating cells
Creating points with scale 1
    Block 0 cell size :
        i : 0.01 .. 0.01
        j : 0.01 .. 0.01
        k : 0.01 .. 0.01


There are no merge patch pairs

Writing polyMesh with 0 cellZones
----------------
Mesh Information
----------------
  boundingBox: (-0.2 0 0) (0.2 0.01 0.4)
  nPoints: 3362
  nCells: 1600
  nFaces: 6480
  nInternalFaces: 3120
----------------
Patches
----------------
  patch 0 (start: 3120 size: 40) name: filmWalls
  patch 1 (start: 3160 size: 120) name: sides
  patch 2 (start: 3280 size: 3200) name: frontAndBack

End

