/*---------------------------------------------------------------------------*\
| =========                 |                                                 |
| \\      /  F ield         | OpenFOAM: The Open Source CFD Toolbox           |
|  \\    /   O peration     | Version:  v1912                                 |
|   \\  /    A nd           | Website:  www.openfoam.com                      |
|    \\/     M anipulation  |                                                 |
\*---------------------------------------------------------------------------*/
Build  : _f3950763fe-20191219 OPENFOAM=1912
Arch   : "LSB;label=32;scalar=64"
Exec   : topoSet
Date   : Oct 01 2020
Time   : 22:33:31
Host   : aleksandr-Aspire-V3-571G
PID    : 28304
I/O    : uncollated
Case   : /home/aleksandr/ISP/ICING/iceFoam/tutorials/TEST
nProcs : 1
trapFpe: Floating point exception trapping enabled (FOAM_SIGFPE).
fileModificationChecking : Monitoring run-time modified files using timeStampMaster (fileModificationSkew 10)
allowSystemOperations : Allowing user-supplied system call operations

// * * * * * * * * * * * * * * * * * * * * * * * * * * * * * * * * * * * * * //
Create time

Create polyMesh for time = 0

Reading topoSetDict

Time = 0
    mesh not changed.
Created faceSet wallFilmFaceSet
    Applying source patchToFace
    Adding all faces of patches 1(filmWalls) ...
    Found matching patch filmWalls with 40 faces.
    faceSet wallFilmFaceSet now size 40
Created faceZoneSet wallFilmFaces
    Applying source setToFaceZone
    Adding all faces from faceSet wallFilmFaceSet ...
    faceZoneSet wallFilmFaces now size 40

End

